          12
FINAL HEAT OF FORMATION =      -849.9998475673  time =       0.0000000000
  C   -8.0015263557    0.6872025648    0.0332552999
  C   -7.1109408265    1.7783923657    0.0391770687
  C   -5.7205806961    1.5527656259    0.0321435322
  C   -5.2213155599    0.2358808277    0.0084388141
  C   -6.1117835745   -0.8554339507    0.0125505722
  C   -7.5021087664   -0.6297986141    0.0185964687
  H   -9.0853691161    0.8629238810    0.0429507263
  H   -7.5002608421    2.8047803056    0.0520584569
  H   -5.0264470769    2.4029663007    0.0473201308
  H   -4.1375184568    0.0599494109   -0.0098942264
  H   -5.7222478472   -1.8817345046    0.0131072773
  H   -8.1961523684   -1.4802808282    0.0146031059
