          12
FINAL HEAT OF FORMATION =      -849.7746243361  time =       0.0000000000
  C   -7.9798271101    0.6776918081   -0.0532285388
  C   -7.0849928010    1.7602597759    0.0294961792
  C   -5.7058415294    1.5490364812    0.0312760931
  C   -5.2231419594    0.2195333448   -0.0446043010
  C   -6.1050960756   -0.8685564920    0.0220869421
  C   -7.5344099241   -0.6444487634    0.0248126135
  H   -9.0268081830    0.8587716724   -0.0794794940
  H   -7.4774606514    2.7566353436    0.1635393862
  H   -5.0939335779    2.4479885163    0.1481876938
  H   -4.1292016456    0.0999373674   -0.1580811639
  H   -5.6916991654   -1.8878557992    0.1151090966
  H   -8.2838388636   -1.4313798704    0.1051927200
          12
FINAL HEAT OF FORMATION =      -849.7830271643  time =       1.0000000000
  C   -7.9763910955    0.6723388645   -0.0538578563
  C   -7.0837098308    1.7627887605    0.0278768740
  C   -5.7111325241    1.5446205028    0.0333433407
  C   -5.2148019759    0.2246668402   -0.0443743688
  C   -6.1119679000   -0.8703604426    0.0221092007
  C   -7.5354637951   -0.6448134942    0.0244091479
  H   -9.0532115791    0.8731856003   -0.0730755776
  H   -7.4843538486    2.7783725311    0.1743517765
  H   -5.0803486452    2.4615563399    0.1346052412
  H   -4.1041984049    0.1000421381   -0.1592759232
  H   -5.7096998075   -1.8889598052    0.1119185277
  H   -8.2685279502   -1.4303099238    0.1105774035
          12
FINAL HEAT OF FORMATION =      -849.7474551467  time =       2.0000000000
  C   -7.9725882260    0.6678103045   -0.0544115765
  C   -7.0842151112    1.7660532690    0.0268047431
  C   -5.7152203996    1.5393644494    0.0356206013
  C   -5.2068649595    0.2307221161   -0.0444393481
  C   -6.1171532434   -0.8717889117    0.0226245136
  C   -7.5362459110   -0.6455029215    0.0236883883
  H   -9.0853476216    0.8900635113   -0.0638078272
  H   -7.4900328136    2.7975720746    0.1794538032
  H   -5.0645957392    2.4625353887    0.1196529303
  H   -4.0905905130    0.0965070061   -0.1617315574
  H   -5.7303999550   -1.8879971647    0.1097725541
  H   -8.2549530757   -1.4354803938    0.1121500801
          12
FINAL HEAT OF FORMATION =      -849.7036549734  time =       3.0000000000
  C   -7.9704950291    0.6641418324   -0.0543805769
  C   -7.0858465128    1.7693548165    0.0250353766
  C   -5.7180623482    1.5339548515    0.0374484604
  C   -5.1995181104    0.2369982094   -0.0434408688
  C   -6.1211954059   -0.8733266165    0.0226504764
  C   -7.5359904740   -0.6452761504    0.0225086037
  H   -9.1092782226    0.9050115673   -0.0522604826
  H   -7.4916414156    2.8132167237    0.1842801679
  H   -5.0480992014    2.4542878048    0.1061136487
  H   -4.0831754695    0.0950441303   -0.1662435140
  H   -5.7538280138   -1.8849382905    0.1097376583
  H   -8.2442834935   -1.4479848407    0.1130725882
          12
FINAL HEAT OF FORMATION =      -849.6808650822  time =       4.0000000000
  C   -7.9702865341    0.6623076379   -0.0538604344
  C   -7.0876323959    1.7727879300    0.0225586975
  C   -5.7201326893    1.5294148199    0.0391520456
  C   -5.1934959183    0.2424566007   -0.0416311312
  C   -6.1241933967   -0.8750420325    0.0233650757
  C   -7.5344647275   -0.6445899833    0.0202699409
  H   -9.1178886988    0.9170571835   -0.0349678147
  H   -7.4921939161    2.8205329710    0.1881537129
  H   -5.0361624095    2.4377719102    0.0943544036
  H   -4.0855010708    0.0935649426   -0.1755857098
  H   -5.7744643032   -1.8831997924    0.1100554825
  H   -8.2355146482   -1.4713334144    0.1127004693
          12
FINAL HEAT OF FORMATION =      -849.6330126095  time =       5.0000000000
  C   -7.9719842001    0.6626230233   -0.0531953194
  C   -7.0915352834    1.7763111261    0.0201181137
  C   -5.7200710571    1.5266715550    0.0398780148
  C   -5.1878490165    0.2459674726   -0.0391859946
  C   -6.1278781699   -0.8756480611    0.0246611922
  C   -7.5311950643   -0.6435167451    0.0174860637
  H   -9.1062721372    0.9212086990   -0.0120066076
  H   -7.4918960851    2.8157292046    0.1875368256
  H   -5.0272133799    2.4138690626    0.0874978682
  H   -4.0949009048    0.0905506159   -0.1862536425
  H   -5.7906318124   -1.8865460787    0.1084607085
  H   -8.2261969118   -1.5020389468    0.1096333947
          12
FINAL HEAT OF FORMATION =      -849.5792790411  time =       6.0000000000
  C   -7.9755140488    0.6635057019   -0.0519689491
  C   -7.0962786704    1.7807614452    0.0177835649
  C   -5.7185182902    1.5234103142    0.0397116206
  C   -5.1838186517    0.2484428576   -0.0357679176
  C   -6.1309382696   -0.8756578639    0.0255693389
  C   -7.5274639935   -0.6411029596    0.0144235660
  H   -9.0763915417    0.9248458427    0.0140511795
  H   -7.4945580193    2.8005515074    0.1811016880
  H   -5.0251511409    2.3858418214    0.0838153921
  H   -4.1073856361    0.0851911550   -0.1957476550
  H   -5.7989783684   -1.8964147900    0.1059375852
  H   -8.2104810243   -1.5313379326    0.1053509886
          12
FINAL HEAT OF FORMATION =      -849.5215487150  time =       7.0000000000
  C   -7.9795870245    0.6648414045   -0.0504882868
  C   -7.1020978143    1.7853979566    0.0148375809
  C   -5.7162805458    1.5187459056    0.0392138115
  C   -5.1817717393    0.2505014656   -0.0319303241
  C   -6.1325539157   -0.8748146540    0.0270631160
  C   -7.5235274011   -0.6379109742    0.0110593221
  H   -9.0381584557    0.9277049378    0.0461262297
  H   -7.5003659068    2.7828398838    0.1736916373
  H   -5.0236285697    2.3602178211    0.0839358405
  H   -4.1171574392    0.0769276086   -0.2076046234
  H   -5.8034194682   -1.9137965754    0.1016409801
  H   -8.1913816678   -1.5543031503    0.0970672292
          12
FINAL HEAT OF FORMATION =      -849.4548700316  time =       8.0000000000
  C   -7.9833497307    0.6652587401   -0.0477539499
  C   -7.1082319018    1.7897202664    0.0112663393
  C   -5.7138024340    1.5128652146    0.0392992713
  C   -5.1820425039    0.2515890378   -0.0284469536
  C   -6.1333941320   -0.8731630985    0.0290428478
  C   -7.5185500905   -0.6325672289    0.0073165636
  H   -9.0073031007    0.9293025419    0.0770514636
  H   -7.5063766948    2.7672290803    0.1626747787
  H   -5.0217583653    2.3388389107    0.0845077221
  H   -4.1252732388    0.0639259510   -0.2203240493
  H   -5.8009447267   -1.9296977469    0.0962851400
  H   -8.1705213723   -1.5703097955    0.0841174826
          12
FINAL HEAT OF FORMATION =      -849.3893588257  time =       9.0000000000
  C   -7.9865888670    0.6639277164   -0.0441155365
  C   -7.1134734910    1.7923855691    0.0072297782
  C   -5.7123160341    1.5056966079    0.0394568389
  C   -5.1837984072    0.2513559251   -0.0254294046
  C   -6.1332711090   -0.8713204260    0.0312200252
  C   -7.5127685518   -0.6254456560    0.0025896987
  H   -8.9924671044    0.9327516772    0.1086972290
  H   -7.5195234689    2.7635833727    0.1526710612
  H   -5.0146706942    2.3288412199    0.0867859508
  H   -4.1306781268    0.0453216463   -0.2313302283
  H   -5.7958814055   -1.9368424883    0.0924633063
  H   -8.1476731412   -1.5722658599    0.0717038440
          12
FINAL HEAT OF FORMATION =      -849.3021292338  time =      10.0000000000
  C   -7.9870612045    0.6615458046   -0.0407290167
  C   -7.1176174418    1.7937035657    0.0035228639
  C   -5.7121189232    1.4976054047    0.0391620970
  C   -5.1881142960    0.2507743792   -0.0224197523
  C   -6.1329631826   -0.8694600234    0.0332806153
  C   -7.5061972876   -0.6183116965   -0.0013877312
  H   -8.9954119258    0.9443706761    0.1404340808
  H   -7.5344697643    2.7713701615    0.1441488583
  H   -5.0050552266    2.3332739634    0.0919512358
  H   -4.1363047900    0.0184401251   -0.2452113507
  H   -5.7877984330   -1.9323272018    0.0903020227
  H   -8.1180663199   -1.5632058390    0.0539121201
