          12
FINAL HEAT OF FORMATION =      -849.7746243361  time =       0.0000000000
  C   -7.9798271101    0.6776918081   -0.0532285388
  C   -7.0849928010    1.7602597759    0.0294961792
  C   -5.7058415294    1.5490364812    0.0312760931
  C   -5.2231419594    0.2195333448   -0.0446043010
  C   -6.1050960756   -0.8685564920    0.0220869421
  C   -7.5344099241   -0.6444487634    0.0248126135
  H   -9.0268081830    0.8587716724   -0.0794794940
  H   -7.4774606514    2.7566353436    0.1635393862
  H   -5.0939335779    2.4479885163    0.1481876938
  H   -4.1292016456    0.0999373674   -0.1580811639
  H   -5.6916991654   -1.8878557992    0.1151090966
  H   -8.2838388636   -1.4313798704    0.1051927200
          12
FINAL HEAT OF FORMATION =      -849.7803189447  time =       1.0000000000
  C   -7.9762472743    0.6721281163   -0.0537020684
  C   -7.0833232945    1.7625348957    0.0279643926
  C   -5.7115807568    1.5443344129    0.0332080264
  C   -5.2150315562    0.2246899166   -0.0443157674
  C   -6.1123666115   -0.8699450045    0.0219471351
  C   -7.5349400141   -0.6444914490    0.0244589705
  H   -9.0530897199    0.8731998715   -0.0738438374
  H   -7.4844157587    2.7783055496    0.1739685853
  H   -5.0801796569    2.4613490841    0.1341446561
  H   -4.1042663646    0.0999805583   -0.1578580103
  H   -5.7095521084   -1.8888470436    0.1116702099
  H   -8.2685677471   -1.4302195287    0.1103670387
          12
FINAL HEAT OF FORMATION =      -849.7602841823  time =       2.0000000000
  C   -7.9719505916    0.6673578803   -0.0537553323
  C   -7.0827810362    1.7648136083    0.0271899704
  C   -5.7170292354    1.5385773514    0.0350649577
  C   -5.2077761490    0.2304672245   -0.0442446378
  C   -6.1186875659   -0.8700026228    0.0219825069
  C   -7.5341524499   -0.6445180804    0.0238791178
  H   -9.0848156724    0.8899604958   -0.0670426965
  H   -7.4902130398    2.7973415851    0.1774390470
  H   -5.0640577862    2.4615278988    0.1182027596
  H   -4.0909251727    0.0963344168   -0.1560532213
  H   -5.7298306873   -1.8874610416    0.1087505682
  H   -8.2550062506   -1.4349480082    0.1114398713
          12
FINAL HEAT OF FORMATION =      -849.7394398095  time =       3.0000000000
  C   -7.9690016124    0.6636824931   -0.0528883878
  C   -7.0828640088    1.7662935466    0.0260079938
  C   -5.7219869085    1.5327402998    0.0361367715
  C   -5.2015650690    0.2359774699   -0.0430586504
  C   -6.1244037907   -0.8692391066    0.0211815673
  C   -7.5314993563   -0.6435342551    0.0229824742
  H   -9.1079110402    0.9043378151   -0.0600959000
  H   -7.4918856779    2.8125933490    0.1792578186
  H   -5.0471338024    2.4516478273    0.1032202603
  H   -4.0840275351    0.0948527205   -0.1531496704
  H   -5.7526896205   -1.8833768105    0.1072770706
  H   -8.2441014161   -1.4463006715    0.1117009777
          12
FINAL HEAT OF FORMATION =      -849.7543250372  time =       4.0000000000
  C   -7.9677912047    0.6623527625   -0.0512835507
  C   -7.0827282800    1.7670141480    0.0245367487
  C   -5.7267014482    1.5281620116    0.0367480930
  C   -5.1969988397    0.2400262603   -0.0410416281
  C   -6.1294128253   -0.8678141246    0.0206304458
  C   -7.5269905868   -0.6422889920    0.0212548324
  H   -9.1149683399    0.9146620435   -0.0500563861
  H   -7.4923894615    2.8191041488    0.1788511615
  H   -5.0346397373    2.4322034100    0.0890133364
  H   -4.0871758973    0.0938669603   -0.1514455020
  H   -5.7727022193   -1.8796400427    0.1056270749
  H   -8.2348345247   -1.4672091258    0.1108209953
          12
FINAL HEAT OF FORMATION =      -849.7265898278  time =       5.0000000000
  C   -7.9686124458    0.6641961941   -0.0494044937
  C   -7.0846103655    1.7667430366    0.0235818209
  C   -5.7294580189    1.5262695313    0.0361373358
  C   -5.1929865020    0.2411229949   -0.0384079685
  C   -6.1350869075   -0.8644341257    0.0201591681
  C   -7.5204726245   -0.6413044804    0.0192604303
  H   -9.1009200485    0.9148765771   -0.0370209300
  H   -7.4917774040    2.8130203849    0.1728341483
  H   -5.0248091185    2.4034643137    0.0780962402
  H   -4.0975485009    0.0926333974   -0.1474305774
  H   -5.7884340953   -1.8798327331    0.1018577767
  H   -8.2250453332   -1.4936087779    0.1077440144
          12
FINAL HEAT OF FORMATION =      -849.7314466339  time =       6.0000000000
  C   -7.9714313645    0.6678538741   -0.0469090451
  C   -7.0875949680    1.7663049964    0.0231583525
  C   -5.7304456181    1.5249095282    0.0344940131
  C   -5.1908145982    0.2400799385   -0.0348257609
  C   -6.1396929417   -0.8596712857    0.0188275286
  C   -7.5136148693   -0.6398421094    0.0172381795
  H   -9.0684528594    0.9119955700   -0.0230684659
  H   -7.4935070569    2.7959661407    0.1600545098
  H   -5.0214042240    2.3689349074    0.0686325081
  H   -4.1105503292    0.0907708960   -0.1392414058
  H   -5.7970272775   -1.8854434752    0.0972319977
  H   -8.2092430675   -1.5168548265    0.1040909507
          12
FINAL HEAT OF FORMATION =      -849.7251177360  time =       7.0000000000
  C   -7.9748352056    0.6731482554   -0.0441555211
  C   -7.0922210801    1.7651236695    0.0224752518
  C   -5.7300926034    1.5230723254    0.0324545221
  C   -5.1909399006    0.2376750326   -0.0308148065
  C   -6.1420611459   -0.8534099247    0.0176675934
  C   -7.5070465388   -0.6384651835    0.0151091557
  H   -9.0292418332    0.9059462089   -0.0048902193
  H   -7.4973761835    2.7755427816    0.1454833143
  H   -5.0176279519    2.3361785848    0.0612636577
  H   -4.1195808147    0.0878293956   -0.1311324445
  H   -5.8028197616   -1.8978193598    0.0910760736
  H   -8.1909134006   -1.5326881459    0.0972524108
          12
FINAL HEAT OF FORMATION =      -849.7096024488  time =       8.0000000000
  C   -7.9778248339    0.6784249112   -0.0401723370
  C   -7.0978305121    1.7629961589    0.0214639712
  C   -5.7286571228    1.5206357303    0.0309708325
  C   -5.1936845098    0.2337267836   -0.0270913282
  C   -6.1427234089   -0.8459315640    0.0166431068
  C   -7.5001935519   -0.6356346493    0.0127443261
  H   -9.0014056818    0.8967412502    0.0104028936
  H   -7.5002232109    2.7561723195    0.1265593358
  H   -5.0117648178    2.3084650726    0.0526212240
  H   -4.1251167324    0.0817732586   -0.1222844433
  H   -5.8028824671   -1.9085445442    0.0841453405
  H   -8.1722498559   -1.5414973458    0.0868125728
          12
FINAL HEAT OF FORMATION =      -849.7259443432  time =       9.0000000000
  C   -7.9801402864    0.6824655681   -0.0353307278
  C   -7.1031591126    1.7589299160    0.0202259295
  C   -5.7272968094    1.5171767271    0.0295531017
  C   -5.1980822334    0.2283668293   -0.0236963871
  C   -6.1415114794   -0.8381452691    0.0155461986
  C   -7.4934875723   -0.6314859043    0.0094958971
  H   -8.9951788174    0.8878423096    0.0245766658
  H   -7.5089471601    2.7477956549    0.1079848687
  H   -4.9982043930    2.2940965645    0.0439785457
  H   -4.1260676967    0.0713953069   -0.1108426531
  H   -5.8014007650   -1.9109856503    0.0789655649
  H   -8.1535466349   -1.5372599744    0.0781635557
          12
FINAL HEAT OF FORMATION =      -849.7385083169  time =      10.0000000000
  C   -7.9796883130    0.6855038740   -0.0308114987
  C   -7.1078628016    1.7535903154    0.0194953562
  C   -5.7262351907    1.5127596432    0.0276700668
  C   -5.2049779573    0.2231245709   -0.0201009868
  C   -6.1393308809   -0.8305707707    0.0141362633
  C   -7.4870788598   -0.6275054883    0.0070733089
  H   -9.0116350463    0.8855842615    0.0371179592
  H   -7.5184362211    2.7504492831    0.0905620832
  H   -4.9797697150    2.2964207086    0.0367503479
  H   -4.1259296164    0.0537070288   -0.1022719382
  H   -5.7976683536   -1.9027698881    0.0754797016
  H   -8.1304353762   -1.5240175205    0.0654312425
