          12
FINAL HEAT OF FORMATION =      -849.7746243361  time =       0.0000000000
  C   -7.9798271101    0.6776918081   -0.0532285388
  C   -7.0849928010    1.7602597759    0.0294961792
  C   -5.7058415294    1.5490364812    0.0312760931
  C   -5.2231419594    0.2195333448   -0.0446043010
  C   -6.1050960756   -0.8685564920    0.0220869421
  C   -7.5344099241   -0.6444487634    0.0248126135
  H   -9.0268081830    0.8587716724   -0.0794794940
  H   -7.4774606514    2.7566353436    0.1635393862
  H   -5.0939335779    2.4479885163    0.1481876938
  H   -4.1292016456    0.0999373674   -0.1580811639
  H   -5.6916991654   -1.8878557992    0.1151090966
  H   -8.2838388636   -1.4313798704    0.1051927200
          12
FINAL HEAT OF FORMATION =      -849.7746378739  time =       1.0000000000
  C   -7.9759694211    0.6720222225   -0.0542135273
  C   -7.0824902103    1.7619452114    0.0284387324
  C   -5.7119909068    1.5450028952    0.0324462153
  C   -5.2156435264    0.2245375190   -0.0439126113
  C   -6.1127974592   -0.8701641910    0.0214585055
  C   -7.5350455009   -0.6437040994    0.0247185795
  H   -9.0489776449    0.8700976378   -0.0745936484
  H   -7.4831330312    2.7778707042    0.1746785643
  H   -5.0810647494    2.4629519561    0.1376034317
  H   -4.1058114421    0.1008716553   -0.1576340439
  H   -5.7092402462   -1.8894687759    0.1111024019
  H   -8.2671765678   -1.4316641421    0.1141585950
          12
FINAL HEAT OF FORMATION =      -849.7745943450  time =       2.0000000000
  C   -7.9717506815    0.6666939740   -0.0547753442
  C   -7.0804091966    1.7630529191    0.0274721231
  C   -5.7180954083    1.5408094963    0.0336155373
  C   -5.2086546871    0.2294364235   -0.0431618449
  C   -6.1211041237   -0.8706952625    0.0208144979
  C   -7.5334612614   -0.6422820500    0.0244917352
  H   -9.0743748250    0.8825011545   -0.0705254973
  H   -7.4888508739    2.7986208749    0.1833642531
  H   -5.0674421384    2.4699816288    0.1251089410
  H   -4.0905485854    0.0996894271   -0.1548984330
  H   -5.7280942870   -1.8902534178    0.1056394794
  H   -8.2516380443   -1.4383630796    0.1223821058
          12
FINAL HEAT OF FORMATION =      -849.7745526651  time =       3.0000000000
  C   -7.9680496636    0.6623859735   -0.0549148274
  C   -7.0793115324    1.7639145841    0.0266866267
  C   -5.7234653017    1.5369245329    0.0347569974
  C   -5.2023772925    0.2337318436   -0.0423499452
  C   -6.1293655766   -0.8698291547    0.0201200294
  C   -7.5297983525   -0.6403471697    0.0241513801
  H   -9.0931020375    0.8935412653   -0.0671600795
  H   -7.4921932632    2.8123299763    0.1884952593
  H   -5.0566563896    2.4651929157    0.1107610931
  H   -4.0864490561    0.0969188347   -0.1496604435
  H   -5.7471616160   -1.8911432043    0.0989298834
  H   -8.2386902481   -1.4518419278    0.1297825272
          12
FINAL HEAT OF FORMATION =      -849.7745529539  time =       4.0000000000
  C   -7.9655141165    0.6596517804   -0.0546305119
  C   -7.0796138097    1.7647100937    0.0261425965
  C   -5.7275954707    1.5335780264    0.0358163199
  C   -5.1971648874    0.2370352836   -0.0414528248
  C   -6.1369380911   -0.8673918935    0.0193463711
  C   -7.5244484089   -0.6382130536    0.0237374612
  H   -9.0984129946    0.9012512038   -0.0644652061
  H   -7.4917403758    2.8150550096    0.1893595051
  H   -5.0504690485    2.4476914850    0.0949816806
  H   -4.0934590255    0.0928192017   -0.1420513544
  H   -5.7654243467   -1.8927765746    0.0911764112
  H   -8.2278740599   -1.4701464800    0.1360317894
          12
FINAL HEAT OF FORMATION =      -849.7745889842  time =       5.0000000000
  C   -7.9644554845    0.6588403712   -0.0539190630
  C   -7.0815125670    1.7654099873    0.0258591555
  C   -5.7302302699    1.5307444151    0.0367206511
  C   -5.1935086379    0.2390903505   -0.0404270704
  C   -6.1432155951   -0.8633835024    0.0184734558
  C   -7.5179796578   -0.6362556527    0.0233032015
  H   -9.0879570001    0.9045319292   -0.0624699301
  H   -7.4873883898    2.8062536303    0.1857948429
  H   -5.0485438420    2.4197159457    0.0784374599
  H   -4.1084691388    0.0873068013   -0.1325117885
  H   -5.7820693292   -1.8951981070    0.0825513602
  H   -8.2174271147   -1.4896809705    0.1406083018
          12
FINAL HEAT OF FORMATION =      -849.7746223111  time =       6.0000000000
  C   -7.9648204331    0.6600486808   -0.0527761441
  C   -7.0849474478    1.7657729425    0.0258127779
  C   -5.7313916954    1.5281698954    0.0373908586
  C   -5.1919693614    0.2397748763   -0.0392183013
  C   -6.1476678637   -0.8579753212    0.0174896874
  C   -7.5110226701   -0.6347882559    0.0228996848
  H   -9.0640357074    0.9033206734   -0.0612397806
  H   -7.4803749061    2.7888841368    0.1782159230
  H   -5.0485029707    2.3862997665    0.0618789188
  H   -4.1260409803    0.0799792317   -0.1216808279
  H   -5.7965170157   -1.8978015816    0.0731972700
  H   -8.2053660332   -1.5065073090    0.1429624793
          12
FINAL HEAT OF FORMATION =      -849.7746125771  time =       7.0000000000
  C   -7.9661960311    0.6631049804   -0.0511972778
  C   -7.0896069694    1.7653940944    0.0259448318
  C   -5.7313483105    1.5254575717    0.0377561110
  C   -5.1930335769    0.2390841931   -0.0377752773
  C   -6.1498874183   -0.8514800124    0.0163898629
  C   -7.5041627564   -0.6339619670    0.0225614456
  H   -9.0334480908    0.8986248849   -0.0608634398
  H   -7.4730373940    2.7688875929    0.1675128018
  H   -5.0465014546    2.3542530826    0.0459652320
  H   -4.1400542994    0.0703052968   -0.1102143583
  H   -5.8083577248   -1.8995426391    0.0632455372
  H   -8.1904249848   -1.5175783651    0.1426917207
          12
FINAL HEAT OF FORMATION =      -849.7745677901  time =       8.0000000000
  C   -7.9678909836    0.6675961724   -0.0491788908
  C   -7.0949900248    1.7638344413    0.0261816493
  C   -5.7304973388    1.5222320386    0.0377665482
  C   -5.1969084458    0.2371015332   -0.0360655645
  C   -6.1496395484   -0.8443076382    0.0151727997
  C   -7.4978617621   -0.6337234528    0.0222987842
  H   -9.0064296860    0.8923108019   -0.0614474665
  H   -7.4681668835    2.7536507905    0.1547774713
  H   -5.0386419565    2.3301702749    0.0311316875
  H   -4.1460908524    0.0579931359   -0.0985885341
  H   -5.8172424128   -1.8993252550    0.0528373451
  H   -8.1725765830   -1.5215171837    0.1396519786
          12
FINAL HEAT OF FORMATION =      -849.7745568912  time =       9.0000000000
  C   -7.9691816596    0.6729555712   -0.0467204127
  C   -7.1005230302    1.7608427869    0.0264654530
  C   -5.7291823366    1.5183464593    0.0373961488
  C   -5.2033498437    0.2339718205   -0.0340836167
  C   -6.1469058986   -0.8369248175    0.0138400581
  C   -7.4924121899   -0.6338250090    0.0220971727
  H   -8.9935940035    0.8864226963   -0.0630997289
  H   -7.4679277604    2.7492504112    0.1408868559
  H   -5.0230051052    2.3179079237    0.0175911890
  H   -4.1434348519    0.0433745936   -0.0870032648
  H   -5.8227894030   -1.8964056653    0.0421336885
  H   -8.1531535530   -1.5189009680    0.1339890044
          12
FINAL HEAT OF FORMATION =      -849.7746112251  time =      10.0000000000
  C   -7.9697067382    0.6785929594   -0.0438297083
  C   -7.1056893187    1.7565806520    0.0267781947
  C   -5.7275527843    1.5140094353    0.0366336585
  C   -5.2116430022    0.2298982723   -0.0318456070
  C   -6.1419110848   -0.8298274997    0.0123961454
  C   -7.4879254821   -0.6338723358    0.0219222423
  H   -9.0010527098    0.8821473646   -0.0658657477
  H   -7.4727949374    2.7575358897    0.1261759169
  H   -5.0010735996    2.3170295031    0.0054810568
  H   -4.1352911809    0.0275224102   -0.0754529505
  H   -5.8245504297   -1.8906788294    0.0313105619
  H   -8.1346287915   -1.5120835729    0.1260937751
