          12
FINAL HEAT OF FORMATION =      -849.8444140296  time =       0.0000000000
  C   -7.9798271101    0.6776918081   -0.0532285388
  C   -7.0849928010    1.7602597759    0.0294961792
  C   -5.7058415294    1.5490364812    0.0312760931
  C   -5.2231419594    0.2195333448   -0.0446043010
  C   -6.1050960756   -0.8685564920    0.0220869421
  C   -7.5344099241   -0.6444487634    0.0248126135
  H   -9.0268081830    0.8587716724   -0.0794794940
  H   -7.4774606514    2.7566353436    0.1635393862
  H   -5.0939335779    2.4479885163    0.1481876938
  H   -4.1292016456    0.0999373674   -0.1580811639
  H   -5.6916991654   -1.8878557992    0.1151090966
  H   -8.2838388636   -1.4313798704    0.1051927200
          12
FINAL HEAT OF FORMATION =      -849.8505530309  time =       1.0000000000
  C   -7.9762437320    0.6721279657   -0.0537052043
  C   -7.0833230172    1.7625322353    0.0279627108
  C   -5.7115806455    1.5443311498    0.0332070342
  C   -5.2150356082    0.2246884135   -0.0443165320
  C   -6.1123671812   -0.8699415783    0.0219462496
  C   -7.5349382445   -0.6444898102    0.0244583098
  H   -9.0532272966    0.8732139266   -0.0738306621
  H   -7.4844599505    2.7784471087    0.1739972786
  H   -5.0801030788    2.4614951949    0.1341690670
  H   -4.1041067160    0.0999670378   -0.1578662932
  H   -5.7094905047   -1.8889909715    0.1116891802
  H   -8.2686967671   -1.4303336307    0.1103876106
          12
FINAL HEAT OF FORMATION =      -849.8307878821  time =       2.0000000000
  C   -7.9719410482    0.6673570385   -0.0537686483
  C   -7.0827801823    1.7648060891    0.0271837622
  C   -5.7170272945    1.5385673629    0.0350618684
  C   -5.2077884940    0.2304605676   -0.0442478781
  C   -6.1186889109   -0.8699932069    0.0219797555
  C   -7.5341475160   -0.6445145808    0.0238766700
  H   -9.0853275175    0.8900135956   -0.0669850479
  H   -7.4903811582    2.7978721931    0.1775493936
  H   -5.0637784609    2.4620630461    0.1182903011
  H   -4.0903209701    0.0962868777   -0.1560834362
  H   -5.7296155415   -1.8879793152    0.1088190162
  H   -8.2554679839   -1.4353558255    0.1115190810
          12
FINAL HEAT OF FORMATION =      -849.8096294133  time =       3.0000000000
  C   -7.9689927639    0.6636808176   -0.0529188819
  C   -7.0828644495    1.7662864014    0.0259949520
  C   -5.7219774087    1.5327277372    0.0361321033
  C   -5.2015797955    0.2359614182   -0.0430663732
  C   -6.1244030529   -0.8692317066    0.0211770859
  C   -7.5314962399   -0.6435372628    0.0229783813
  H   -9.1089404752    0.9044495413   -0.0599622245
  H   -7.4922260634    2.8136600237    0.1794904877
  H   -5.0465912825    2.4526969161    0.1033919092
  H   -4.0828066372    0.0947621502   -0.1532082965
  H   -5.7522918390   -1.8843566353    0.1074117095
  H   -8.2449772941   -1.4470608910    0.1118616952
          12
FINAL HEAT OF FORMATION =      -849.8243536398  time =       4.0000000000
  C   -7.9677985424    0.6623509027   -0.0513374972
  C   -7.0827347437    1.7670217506    0.0245157429
  C   -5.7266738091    1.5281596400    0.0367438968
  C   -5.1969968049    0.2399959544   -0.0410569591
  C   -6.1294037654   -0.8678294651    0.0206257166
  C   -7.5270017280   -0.6423163615    0.0212499970
  H   -9.1165500655    0.9148455818   -0.0498188053
  H   -7.4929074564    2.8207234819    0.1792277571
  H   -5.0338545036    2.4337480343    0.0892721846
  H   -4.0853291728    0.0937465681   -0.1515218705
  H   -5.7721632887   -1.8809928769    0.1058293176
  H   -8.2360713367   -1.4682468935    0.1110717702
          12
FINAL HEAT OF FORMATION =      -849.7966510386  time =       5.0000000000
  C   -7.9686578857    0.6641962409   -0.0494871018
  C   -7.0846305378    1.7667883121    0.0235530133
  C   -5.7293974354    1.5262974414    0.0361366082
  C   -5.1929357294    0.2410740941   -0.0384349586
  C   -6.1350606340   -0.8645018178    0.0201564735
  C   -7.5205149134   -0.6413789463    0.0192559344
  H   -9.1029724356    0.9151350931   -0.0366565037
  H   -7.4924326367    2.8150740743    0.1733559179
  H   -5.0238822178    2.4053449575    0.0784313317
  H   -4.0952463774    0.0925232160   -0.1474982444
  H   -5.7878557974   -1.8813320489    0.1021184885
  H   -8.2265021036   -1.4947769158    0.1080871776
          12
FINAL HEAT OF FORMATION =      -849.8009207011  time =       6.0000000000
  C   -7.9715414780    0.6678607049   -0.0470241148
  C   -7.0876394364    1.7664175293    0.0231231914
  C   -5.7303350712    1.5249921606    0.0344997869
  C   -5.1906740578    0.2400096609   -0.0348685166
  C   -6.1396411517   -0.8598201143    0.0188288480
  C   -7.5137057399   -0.6399846880    0.0172347836
  H   -9.0707536913    0.9123084050   -0.0225598588
  H   -7.4942140568    2.7982070006    0.1607051608
  H   -5.0205058828    2.3708802916    0.0690273528
  H   -4.1081109348    0.0907322442   -0.1392648161
  H   -5.7965306772   -1.8868286734    0.0975380630
  H   -8.2107593010   -1.5180120350    0.1045277464
          12
FINAL HEAT OF FORMATION =      -849.7943446495  time =       7.0000000000
  C   -7.9750398132    0.6731699282   -0.0443060038
  C   -7.0923024436    1.7653351610    0.0224355845
  C   -5.7299167900    1.5232327327    0.0324691715
  C   -5.1906690677    0.2375834919   -0.0308763777
  C   -6.1419796940   -0.8536576098    0.0176743613
  C   -7.5072008345   -0.6386900546    0.0151068968
  H   -9.0314177569    0.9062610577   -0.0042240818
  H   -7.4980198720    2.7776343823    0.1462352565
  H   -5.0169555208    2.3378743708    0.0617017439
  H   -4.1173740549    0.0879327478   -0.1310745745
  H   -5.8024993249   -1.8989197953    0.0914208076
  H   -8.1923483586   -1.5337451199    0.0977869529
          12
FINAL HEAT OF FORMATION =      -849.7795710136  time =       8.0000000000
  C   -7.9781501781    0.6784711685   -0.0403599458
  C   -7.0979596956    1.7633312888    0.0214216198
  C   -5.7284094440    1.5208860560    0.0309959180
  C   -5.1932572973    0.2336187897   -0.0271733899
  C   -6.1426144485   -0.8462788966    0.0166554591
  C   -7.5004205104   -0.6359463334    0.0127423611
  H   -9.0030184638    0.8969935131    0.0112396408
  H   -7.5007010879    2.7577870785    0.1273878829
  H   -5.0114544718    2.3096653006    0.0530889261
  H   -4.1234128017    0.0820722347   -0.1221226411
  H   -5.8027801430   -1.9093479059    0.0845328197
  H   -8.1735053085   -1.5424351488    0.0874519271
          12
FINAL HEAT OF FORMATION =      -849.7968438896  time =       9.0000000000
  C   -7.9805929929    0.6825432088   -0.0355564270
  C   -7.1033409228    1.7593946144    0.0201812678
  C   -5.7269864436    1.5175105306    0.0295894872
  C   -5.1974977758    0.2282515099   -0.0237984909
  C   -6.1413829728   -0.8385764820    0.0155631804
  C   -7.4937882262   -0.6318784966    0.0094927858
  H   -8.9959487862    0.8880026183    0.0256008981
  H   -7.5092193648    2.7487524725    0.1088811777
  H   -4.9982373096    2.2947337630    0.0444696961
  H   -4.1249137609    0.0719059966   -0.1105766484
  H   -5.8015078905   -1.9116257773    0.0794067117
  H   -8.1545772369   -1.5381283863    0.0789147631
          12
FINAL HEAT OF FORMATION =      -849.8098454682  time =      10.0000000000
  C   -7.9802416054    0.6856127755   -0.0310768906
  C   -7.1080922737    1.7541634193    0.0194470364
  C   -5.7258886050    1.5131505172    0.0277180914
  C   -5.2042630232    0.2230134979   -0.0202205961
  C   -6.1391948323   -0.8310580892    0.0141564112
  C   -7.4874450673   -0.6279638589    0.0070671240
  H   -9.0116443397    0.8856926751    0.0383629503
  H   -7.5185676443    2.7508245734    0.0915371619
  H   -4.9799392557    2.2966365681    0.0372627818
  H   -4.1251266192    0.0543999683   -0.1019223700
  H   -5.7979405045   -1.9034639176    0.0759866634
  H   -8.1312396568   -1.5249095792    0.0663022927
